arch@ubuntu:~/Desktop/gem5$ bash automate.sh 

gem5 Simulator System.  http://gem5.org
gem5 is copyrighted software; use the --copyright option for details.

gem5 compiled Nov  7 2019 10:39:16
gem5 started Dec 25 2025 23:06:52
gem5 executing on ubuntu, pid 3010
command line: ./build/ARM/gem5.opt -d spec_results/specbzip configs/example/se.py --cpu-type=MinorCPU --caches --l2cache -c spec_cpu2006/401.bzip2/src/specbzip -o 'spec_cpu2006/401.bzip2/data/input.program 10' -I 100000000

Global frequency set at 1000000000000 ticks per second
warn: DRAM device capacity (8192 Mbytes) does not match the address range assigned (512 Mbytes)
0: system.remote_gdb: listening for remote gdb on port 7000
**** REAL SIMULATION ****
info: Entering event queue @ 0.  Starting simulation...
info: Increasing stack size by one page.
spec_init
Loading Input Data
Duplicating 2415144 bytes
Input data 10485760 bytes in length
Compressing Input Data, level 5
info: Increasing stack size by one page.
Exiting @ tick 83982487500 because a thread reached the max instruction count
gem5 Simulator System.  http://gem5.org
gem5 is copyrighted software; use the --copyright option for details.

gem5 compiled Nov  7 2019 10:39:16
gem5 started Dec 25 2025 23:10:44
gem5 executing on ubuntu, pid 3094
command line: ./build/ARM/gem5.opt -d spec_results/specmcf configs/example/se.py --cpu-type=MinorCPU --caches --l2cache -c spec_cpu2006/429.mcf/src/specmcf -o spec_cpu2006/429.mcf/data/inp.in -I 100000000

Global frequency set at 1000000000000 ticks per second
warn: DRAM device capacity (8192 Mbytes) does not match the address range assigned (512 Mbytes)
0: system.remote_gdb: listening for remote gdb on port 7000
**** REAL SIMULATION ****
info: Entering event queue @ 0.  Starting simulation...
info: Increasing stack size by one page.

MCF SPEC CPU2006 version 1.10
Copyright (c) 1998-2000 Zuse Institut Berlin (ZIB)
Copyright (c) 2000-2002 Andreas Loebel & ZIB
Copyright (c) 2003-2005 Andreas Loebel

Exiting @ tick 64954738500 because a thread reached the max instruction count
gem5 Simulator System.  http://gem5.org
gem5 is copyrighted software; use the --copyright option for details.

gem5 compiled Nov  7 2019 10:39:16
gem5 started Dec 25 2025 23:14:36
gem5 executing on ubuntu, pid 3100
command line: ./build/ARM/gem5.opt -d spec_results/spechmmer configs/example/se.py --cpu-type=MinorCPU --caches --l2cache -c spec_cpu2006/456.hmmer/src/spechmmer -o '--fixed 0 --mean 325 --num 45000 --sd 200 --seed 0 spec_cpu2006/456.hmmer/data/bombesin.hmm' -I 100000000

Global frequency set at 1000000000000 ticks per second
warn: DRAM device capacity (8192 Mbytes) does not match the address range assigned (512 Mbytes)
0: system.remote_gdb: listening for remote gdb on port 7000
**** REAL SIMULATION ****
info: Entering event queue @ 0.  Starting simulation...
info: Increasing stack size by one page.
hmmcalibrate -- calibrate HMM search statistics
HMMER 2.3 (May 2003)
Copyright (C) 1992-2003 HHMI/Washington University School of Medicine
Freely distributed under the GNU General Public License (GPL)
- - - - - - - - - - - - - - - - - - - - - - - - - - - - - - - - - - - -
HMM file:                 spec_cpu2006/456.hmmer/data/bombesin.hmm
Length distribution mean: 325
Length distribution s.d.: 200
Number of samples:        45000
random seed:              0
histogram(s) saved to:    [not saved]
- - - - - - - - - - - - - - - - - - - - - - - - - - - - - - - -

Exiting @ tick 59395825000 because a thread reached the max instruction count
gem5 Simulator System.  http://gem5.org
gem5 is copyrighted software; use the --copyright option for details.

gem5 compiled Nov  7 2019 10:39:16
gem5 started Dec 25 2025 23:18:11
gem5 executing on ubuntu, pid 3113
command line: ./build/ARM/gem5.opt -d spec_results/specsjeng configs/example/se.py --cpu-type=MinorCPU --caches --l2cache -c spec_cpu2006/458.sjeng/src/specsjeng -o spec_cpu2006/458.sjeng/data/test.txt -I 100000000

Global frequency set at 1000000000000 ticks per second
warn: DRAM device capacity (8192 Mbytes) does not match the address range assigned (512 Mbytes)
0: system.remote_gdb: listening for remote gdb on port 7000
**** REAL SIMULATION ****
info: Entering event queue @ 0.  Starting simulation...
info: Increasing stack size by one page.
info: Increasing stack size by one page.
info: Increasing stack size by one page.
info: Increasing stack size by one page.
info: Increasing stack size by one page.
info: Increasing stack size by one page.

Sjeng version SPEC 1.0, Copyright (C) 2000-2005 Gian-Carlo Pascutto

SPEC Workload
Exiting @ tick 513527686500 because a thread reached the max instruction count
gem5 Simulator System.  http://gem5.org
gem5 is copyrighted software; use the --copyright option for details.

gem5 compiled Nov  7 2019 10:39:16
gem5 started Dec 25 2025 23:25:41
gem5 executing on ubuntu, pid 3120
command line: ./build/ARM/gem5.opt -d spec_results/speclibm configs/example/se.py --cpu-type=MinorCPU --caches --l2cache -c spec_cpu2006/470.lbm/src/speclibm -o '20 spec_cpu2006/470.lbm/data/lbm.in 0 1 spec_cpu2006/470.lbm/data/100_100_130_cf_a.of' -I 100000000

Global frequency set at 1000000000000 ticks per second
warn: DRAM device capacity (8192 Mbytes) does not match the address range assigned (512 Mbytes)
0: system.remote_gdb: listening for remote gdb on port 7000
**** REAL SIMULATION ****
info: Entering event queue @ 0.  Starting simulation...
info: Increasing stack size by one page.
MAIN_printInfo:
	grid size      : 100 x 100 x 130 = 1.30 * 10^6 Cells
	nTimeSteps     : 20
	result file    : spec_cpu2006/470.lbm/data/lbm.in
	action         : nothing
	simulation type: channel flow
	obstacle file  : spec_cpu2006/470.lbm/data/100_100_130_cf_a.of

Exiting @ tick 174670727500 because a thread reached the max instruction count
