
---------- Begin Simulation Statistics ----------
final_tick                                   37556000                       # Number of ticks from beginning of simulation (restored from checkpoints and never reset)
host_inst_rate                                 129333                       # Simulator instruction rate (inst/s)
host_mem_usage                                 678752                       # Number of bytes of host memory used
host_op_rate                                   148130                       # Simulator op (including micro ops) rate (op/s)
host_seconds                                     0.07                       # Real time elapsed on the host
host_tick_rate                              542451025                       # Simulator tick rate (ticks/s)
sim_freq                                 1000000000000                       # Frequency of simulated ticks
sim_insts                                        8920                       # Number of instructions simulated
sim_ops                                         10250                       # Number of ops (including micro ops) simulated
sim_seconds                                  0.000038                       # Number of seconds simulated
sim_ticks                                    37556000                       # Number of ticks simulated
system.cpu.branchPred.BTBCorrect                    0                       # Number of correct BTB predictions (this stat may not work properly.
system.cpu.branchPred.BTBHitPct             22.975591                       # BTB Hit Percentage
system.cpu.branchPred.BTBHits                     593                       # Number of BTB hits
system.cpu.branchPred.BTBLookups                 2581                       # Number of BTB lookups
system.cpu.branchPred.RASInCorrect                  4                       # Number of incorrect RAS predictions.
system.cpu.branchPred.condIncorrect               594                       # Number of conditional branches incorrect
system.cpu.branchPred.condPredicted              2025                       # Number of conditional branches predicted
system.cpu.branchPred.indirectHits                 16                       # Number of indirect target hits.
system.cpu.branchPred.indirectLookups             168                       # Number of indirect predictor lookups.
system.cpu.branchPred.indirectMisses              152                       # Number of indirect misses.
system.cpu.branchPred.lookups                    3146                       # Number of BP lookups
system.cpu.branchPred.usedRAS                     284                       # Number of times the RAS was used to get a target.
system.cpu.branchPredindirectMispredicted           68                       # Number of mispredicted indirect branches.
system.cpu.committedInsts                        8920                       # Number of instructions committed
system.cpu.committedOps                         10250                       # Number of ops (including micro ops) committed
system.cpu.cpi                               8.420628                       # CPI: cycles per instruction
system.cpu.discardedOps                          1931                       # Number of ops (including micro ops) which were discarded before commit
system.cpu.dtb.accesses                             0                       # DTB accesses
system.cpu.dtb.align_faults                         0                       # Number of TLB faults due to alignment restrictions
system.cpu.dtb.domain_faults                        0                       # Number of TLB faults due to domain restrictions
system.cpu.dtb.flush_entries                        0                       # Number of entries that have been flushed from TLB
system.cpu.dtb.flush_tlb                            0                       # Number of times complete TLB was flushed
system.cpu.dtb.flush_tlb_asid                       0                       # Number of times TLB was flushed by ASID
system.cpu.dtb.flush_tlb_mva                        0                       # Number of times TLB was flushed by MVA
system.cpu.dtb.flush_tlb_mva_asid                   0                       # Number of times TLB was flushed by MVA & ASID
system.cpu.dtb.hits                                 0                       # DTB hits
system.cpu.dtb.inst_accesses                        0                       # ITB inst accesses
system.cpu.dtb.inst_hits                            0                       # ITB inst hits
system.cpu.dtb.inst_misses                          0                       # ITB inst misses
system.cpu.dtb.misses                               0                       # DTB misses
system.cpu.dtb.perms_faults                         0                       # Number of TLB faults due to permissions restrictions
system.cpu.dtb.prefetch_faults                      0                       # Number of TLB faults due to prefetch
system.cpu.dtb.read_accesses                        0                       # DTB read accesses
system.cpu.dtb.read_hits                            0                       # DTB read hits
system.cpu.dtb.read_misses                          0                       # DTB read misses
system.cpu.dtb.stage2_mmu.stage2_tlb.accesses            0                       # DTB accesses
system.cpu.dtb.stage2_mmu.stage2_tlb.align_faults            0                       # Number of TLB faults due to alignment restrictions
system.cpu.dtb.stage2_mmu.stage2_tlb.domain_faults            0                       # Number of TLB faults due to domain restrictions
system.cpu.dtb.stage2_mmu.stage2_tlb.flush_entries            0                       # Number of entries that have been flushed from TLB
system.cpu.dtb.stage2_mmu.stage2_tlb.flush_tlb            0                       # Number of times complete TLB was flushed
system.cpu.dtb.stage2_mmu.stage2_tlb.flush_tlb_asid            0                       # Number of times TLB was flushed by ASID
system.cpu.dtb.stage2_mmu.stage2_tlb.flush_tlb_mva            0                       # Number of times TLB was flushed by MVA
system.cpu.dtb.stage2_mmu.stage2_tlb.flush_tlb_mva_asid            0                       # Number of times TLB was flushed by MVA & ASID
system.cpu.dtb.stage2_mmu.stage2_tlb.hits            0                       # DTB hits
system.cpu.dtb.stage2_mmu.stage2_tlb.inst_accesses            0                       # ITB inst accesses
system.cpu.dtb.stage2_mmu.stage2_tlb.inst_hits            0                       # ITB inst hits
system.cpu.dtb.stage2_mmu.stage2_tlb.inst_misses            0                       # ITB inst misses
system.cpu.dtb.stage2_mmu.stage2_tlb.misses            0                       # DTB misses
system.cpu.dtb.stage2_mmu.stage2_tlb.perms_faults            0                       # Number of TLB faults due to permissions restrictions
system.cpu.dtb.stage2_mmu.stage2_tlb.prefetch_faults            0                       # Number of TLB faults due to prefetch
system.cpu.dtb.stage2_mmu.stage2_tlb.read_accesses            0                       # DTB read accesses
system.cpu.dtb.stage2_mmu.stage2_tlb.read_hits            0                       # DTB read hits
system.cpu.dtb.stage2_mmu.stage2_tlb.read_misses            0                       # DTB read misses
system.cpu.dtb.stage2_mmu.stage2_tlb.walker.walkRequestOrigin_Requested::Data            0                       # Table walker requests started/completed, data/inst
system.cpu.dtb.stage2_mmu.stage2_tlb.walker.walkRequestOrigin_Requested::Inst            0                       # Table walker requests started/completed, data/inst
system.cpu.dtb.stage2_mmu.stage2_tlb.walker.walkRequestOrigin_Requested::total            0                       # Table walker requests started/completed, data/inst
system.cpu.dtb.stage2_mmu.stage2_tlb.walker.walkRequestOrigin_Completed::Data            0                       # Table walker requests started/completed, data/inst
system.cpu.dtb.stage2_mmu.stage2_tlb.walker.walkRequestOrigin_Completed::Inst            0                       # Table walker requests started/completed, data/inst
system.cpu.dtb.stage2_mmu.stage2_tlb.walker.walkRequestOrigin_Completed::total            0                       # Table walker requests started/completed, data/inst
system.cpu.dtb.stage2_mmu.stage2_tlb.walker.walkRequestOrigin::total            0                       # Table walker requests started/completed, data/inst
system.cpu.dtb.stage2_mmu.stage2_tlb.walker.walks            0                       # Table walker walks requested
system.cpu.dtb.stage2_mmu.stage2_tlb.write_accesses            0                       # DTB write accesses
system.cpu.dtb.stage2_mmu.stage2_tlb.write_hits            0                       # DTB write hits
system.cpu.dtb.stage2_mmu.stage2_tlb.write_misses            0                       # DTB write misses
system.cpu.dtb.walker.walkRequestOrigin_Requested::Data            0                       # Table walker requests started/completed, data/inst
system.cpu.dtb.walker.walkRequestOrigin_Requested::Inst            0                       # Table walker requests started/completed, data/inst
system.cpu.dtb.walker.walkRequestOrigin_Requested::total            0                       # Table walker requests started/completed, data/inst
system.cpu.dtb.walker.walkRequestOrigin_Completed::Data            0                       # Table walker requests started/completed, data/inst
system.cpu.dtb.walker.walkRequestOrigin_Completed::Inst            0                       # Table walker requests started/completed, data/inst
system.cpu.dtb.walker.walkRequestOrigin_Completed::total            0                       # Table walker requests started/completed, data/inst
system.cpu.dtb.walker.walkRequestOrigin::total            0                       # Table walker requests started/completed, data/inst
system.cpu.dtb.walker.walks                         0                       # Table walker walks requested
system.cpu.dtb.write_accesses                       0                       # DTB write accesses
system.cpu.dtb.write_hits                           0                       # DTB write hits
system.cpu.dtb.write_misses                         0                       # DTB write misses
system.cpu.fetch2.amo_instructions                  0                       # Number of memory atomic instructions successfully decoded
system.cpu.fetch2.fp_instructions                   0                       # Number of floating point instructions successfully decoded
system.cpu.fetch2.int_instructions               9642                       # Number of integer instructions successfully decoded
system.cpu.fetch2.load_instructions              2168                       # Number of memory load instructions successfully decoded
system.cpu.fetch2.store_instructions             1418                       # Number of memory store instructions successfully decoded
system.cpu.fetch2.vec_instructions                  0                       # Number of SIMD instructions successfully decoded
system.cpu.idleCycles                           56971                       # Total number of cycles that the object has spent stopped
system.cpu.ipc                               0.118756                       # IPC: instructions per cycle
system.cpu.itb.accesses                             0                       # DTB accesses
system.cpu.itb.align_faults                         0                       # Number of TLB faults due to alignment restrictions
system.cpu.itb.domain_faults                        0                       # Number of TLB faults due to domain restrictions
system.cpu.itb.flush_entries                        0                       # Number of entries that have been flushed from TLB
system.cpu.itb.flush_tlb                            0                       # Number of times complete TLB was flushed
system.cpu.itb.flush_tlb_asid                       0                       # Number of times TLB was flushed by ASID
system.cpu.itb.flush_tlb_mva                        0                       # Number of times TLB was flushed by MVA
system.cpu.itb.flush_tlb_mva_asid                   0                       # Number of times TLB was flushed by MVA & ASID
system.cpu.itb.hits                                 0                       # DTB hits
system.cpu.itb.inst_accesses                        0                       # ITB inst accesses
system.cpu.itb.inst_hits                            0                       # ITB inst hits
system.cpu.itb.inst_misses                          0                       # ITB inst misses
system.cpu.itb.misses                               0                       # DTB misses
system.cpu.itb.perms_faults                         0                       # Number of TLB faults due to permissions restrictions
system.cpu.itb.prefetch_faults                      0                       # Number of TLB faults due to prefetch
system.cpu.itb.read_accesses                        0                       # DTB read accesses
system.cpu.itb.read_hits                            0                       # DTB read hits
system.cpu.itb.read_misses                          0                       # DTB read misses
system.cpu.itb.stage2_mmu.stage2_tlb.accesses            0                       # DTB accesses
system.cpu.itb.stage2_mmu.stage2_tlb.align_faults            0                       # Number of TLB faults due to alignment restrictions
system.cpu.itb.stage2_mmu.stage2_tlb.domain_faults            0                       # Number of TLB faults due to domain restrictions
system.cpu.itb.stage2_mmu.stage2_tlb.flush_entries            0                       # Number of entries that have been flushed from TLB
system.cpu.itb.stage2_mmu.stage2_tlb.flush_tlb            0                       # Number of times complete TLB was flushed
system.cpu.itb.stage2_mmu.stage2_tlb.flush_tlb_asid            0                       # Number of times TLB was flushed by ASID
system.cpu.itb.stage2_mmu.stage2_tlb.flush_tlb_mva            0                       # Number of times TLB was flushed by MVA
system.cpu.itb.stage2_mmu.stage2_tlb.flush_tlb_mva_asid            0                       # Number of times TLB was flushed by MVA & ASID
system.cpu.itb.stage2_mmu.stage2_tlb.hits            0                       # DTB hits
system.cpu.itb.stage2_mmu.stage2_tlb.inst_accesses            0                       # ITB inst accesses
system.cpu.itb.stage2_mmu.stage2_tlb.inst_hits            0                       # ITB inst hits
system.cpu.itb.stage2_mmu.stage2_tlb.inst_misses            0                       # ITB inst misses
system.cpu.itb.stage2_mmu.stage2_tlb.misses            0                       # DTB misses
system.cpu.itb.stage2_mmu.stage2_tlb.perms_faults            0                       # Number of TLB faults due to permissions restrictions
system.cpu.itb.stage2_mmu.stage2_tlb.prefetch_faults            0                       # Number of TLB faults due to prefetch
system.cpu.itb.stage2_mmu.stage2_tlb.read_accesses            0                       # DTB read accesses
system.cpu.itb.stage2_mmu.stage2_tlb.read_hits            0                       # DTB read hits
system.cpu.itb.stage2_mmu.stage2_tlb.read_misses            0                       # DTB read misses
system.cpu.itb.stage2_mmu.stage2_tlb.walker.walkRequestOrigin_Requested::Data            0                       # Table walker requests started/completed, data/inst
system.cpu.itb.stage2_mmu.stage2_tlb.walker.walkRequestOrigin_Requested::Inst            0                       # Table walker requests started/completed, data/inst
system.cpu.itb.stage2_mmu.stage2_tlb.walker.walkRequestOrigin_Requested::total            0                       # Table walker requests started/completed, data/inst
system.cpu.itb.stage2_mmu.stage2_tlb.walker.walkRequestOrigin_Completed::Data            0                       # Table walker requests started/completed, data/inst
system.cpu.itb.stage2_mmu.stage2_tlb.walker.walkRequestOrigin_Completed::Inst            0                       # Table walker requests started/completed, data/inst
system.cpu.itb.stage2_mmu.stage2_tlb.walker.walkRequestOrigin_Completed::total            0                       # Table walker requests started/completed, data/inst
system.cpu.itb.stage2_mmu.stage2_tlb.walker.walkRequestOrigin::total            0                       # Table walker requests started/completed, data/inst
system.cpu.itb.stage2_mmu.stage2_tlb.walker.walks            0                       # Table walker walks requested
system.cpu.itb.stage2_mmu.stage2_tlb.write_accesses            0                       # DTB write accesses
system.cpu.itb.stage2_mmu.stage2_tlb.write_hits            0                       # DTB write hits
system.cpu.itb.stage2_mmu.stage2_tlb.write_misses            0                       # DTB write misses
system.cpu.itb.walker.walkRequestOrigin_Requested::Data            0                       # Table walker requests started/completed, data/inst
system.cpu.itb.walker.walkRequestOrigin_Requested::Inst            0                       # Table walker requests started/completed, data/inst
system.cpu.itb.walker.walkRequestOrigin_Requested::total            0                       # Table walker requests started/completed, data/inst
system.cpu.itb.walker.walkRequestOrigin_Completed::Data            0                       # Table walker requests started/completed, data/inst
system.cpu.itb.walker.walkRequestOrigin_Completed::Inst            0                       # Table walker requests started/completed, data/inst
system.cpu.itb.walker.walkRequestOrigin_Completed::total            0                       # Table walker requests started/completed, data/inst
system.cpu.itb.walker.walkRequestOrigin::total            0                       # Table walker requests started/completed, data/inst
system.cpu.itb.walker.walks                         0                       # Table walker walks requested
system.cpu.itb.write_accesses                       0                       # DTB write accesses
system.cpu.itb.write_hits                           0                       # DTB write hits
system.cpu.itb.write_misses                         0                       # DTB write misses
system.cpu.numCycles                            75112                       # number of cpu cycles simulated
system.cpu.numFetchSuspends                         0                       # Number of times Execute suspended instruction fetching
system.cpu.numWorkItemsCompleted                    0                       # number of work items this cpu completed
system.cpu.numWorkItemsStarted                      0                       # number of work items this cpu started
system.cpu.op_class_0::No_OpClass                   0      0.00%      0.00% # Class of committed instruction
system.cpu.op_class_0::IntAlu                    7102     69.29%     69.29% # Class of committed instruction
system.cpu.op_class_0::IntMult                     55      0.54%     69.82% # Class of committed instruction
system.cpu.op_class_0::IntDiv                       0      0.00%     69.82% # Class of committed instruction
system.cpu.op_class_0::FloatAdd                     0      0.00%     69.82% # Class of committed instruction
system.cpu.op_class_0::FloatCmp                     0      0.00%     69.82% # Class of committed instruction
system.cpu.op_class_0::FloatCvt                     0      0.00%     69.82% # Class of committed instruction
system.cpu.op_class_0::FloatMult                    0      0.00%     69.82% # Class of committed instruction
system.cpu.op_class_0::FloatMultAcc                 0      0.00%     69.82% # Class of committed instruction
system.cpu.op_class_0::FloatDiv                     0      0.00%     69.82% # Class of committed instruction
system.cpu.op_class_0::FloatMisc                    0      0.00%     69.82% # Class of committed instruction
system.cpu.op_class_0::FloatSqrt                    0      0.00%     69.82% # Class of committed instruction
system.cpu.op_class_0::SimdAdd                      0      0.00%     69.82% # Class of committed instruction
system.cpu.op_class_0::SimdAddAcc                   0      0.00%     69.82% # Class of committed instruction
system.cpu.op_class_0::SimdAlu                      0      0.00%     69.82% # Class of committed instruction
system.cpu.op_class_0::SimdCmp                      0      0.00%     69.82% # Class of committed instruction
system.cpu.op_class_0::SimdCvt                      0      0.00%     69.82% # Class of committed instruction
system.cpu.op_class_0::SimdMisc                     0      0.00%     69.82% # Class of committed instruction
system.cpu.op_class_0::SimdMult                     0      0.00%     69.82% # Class of committed instruction
system.cpu.op_class_0::SimdMultAcc                  0      0.00%     69.82% # Class of committed instruction
system.cpu.op_class_0::SimdShift                    0      0.00%     69.82% # Class of committed instruction
system.cpu.op_class_0::SimdShiftAcc                 0      0.00%     69.82% # Class of committed instruction
system.cpu.op_class_0::SimdDiv                      0      0.00%     69.82% # Class of committed instruction
system.cpu.op_class_0::SimdSqrt                     0      0.00%     69.82% # Class of committed instruction
system.cpu.op_class_0::SimdFloatAdd                 0      0.00%     69.82% # Class of committed instruction
system.cpu.op_class_0::SimdFloatAlu                 0      0.00%     69.82% # Class of committed instruction
system.cpu.op_class_0::SimdFloatCmp                 0      0.00%     69.82% # Class of committed instruction
system.cpu.op_class_0::SimdFloatCvt                 0      0.00%     69.82% # Class of committed instruction
system.cpu.op_class_0::SimdFloatDiv                 0      0.00%     69.82% # Class of committed instruction
system.cpu.op_class_0::SimdFloatMisc               21      0.20%     70.03% # Class of committed instruction
system.cpu.op_class_0::SimdFloatMult                0      0.00%     70.03% # Class of committed instruction
system.cpu.op_class_0::SimdFloatMultAcc             0      0.00%     70.03% # Class of committed instruction
system.cpu.op_class_0::SimdFloatSqrt                0      0.00%     70.03% # Class of committed instruction
system.cpu.op_class_0::SimdReduceAdd                0      0.00%     70.03% # Class of committed instruction
system.cpu.op_class_0::SimdReduceAlu                0      0.00%     70.03% # Class of committed instruction
system.cpu.op_class_0::SimdReduceCmp                0      0.00%     70.03% # Class of committed instruction
system.cpu.op_class_0::SimdFloatReduceAdd            0      0.00%     70.03% # Class of committed instruction
system.cpu.op_class_0::SimdFloatReduceCmp            0      0.00%     70.03% # Class of committed instruction
system.cpu.op_class_0::SimdAes                      0      0.00%     70.03% # Class of committed instruction
system.cpu.op_class_0::SimdAesMix                   0      0.00%     70.03% # Class of committed instruction
system.cpu.op_class_0::SimdSha1Hash                 0      0.00%     70.03% # Class of committed instruction
system.cpu.op_class_0::SimdSha1Hash2                0      0.00%     70.03% # Class of committed instruction
system.cpu.op_class_0::SimdSha256Hash               0      0.00%     70.03% # Class of committed instruction
system.cpu.op_class_0::SimdSha256Hash2              0      0.00%     70.03% # Class of committed instruction
system.cpu.op_class_0::SimdShaSigma2                0      0.00%     70.03% # Class of committed instruction
system.cpu.op_class_0::SimdShaSigma3                0      0.00%     70.03% # Class of committed instruction
system.cpu.op_class_0::SimdPredAlu                  0      0.00%     70.03% # Class of committed instruction
system.cpu.op_class_0::MemRead                   1440     14.05%     84.08% # Class of committed instruction
system.cpu.op_class_0::MemWrite                  1632     15.92%    100.00% # Class of committed instruction
system.cpu.op_class_0::FloatMemRead                 0      0.00%    100.00% # Class of committed instruction
system.cpu.op_class_0::FloatMemWrite                0      0.00%    100.00% # Class of committed instruction
system.cpu.op_class_0::IprAccess                    0      0.00%    100.00% # Class of committed instruction
system.cpu.op_class_0::InstPrefetch                 0      0.00%    100.00% # Class of committed instruction
system.cpu.op_class_0::total                    10250                       # Class of committed instruction
system.cpu.tickCycles                           18141                       # Number of cycles that the object actually ticked
system.cpu.workload.numSyscalls                    10                       # Number of system calls
system.membus.snoop_filter.hit_multi_requests           12                       # Number of requests hitting in the snoop filter with multiple (>1) holders of the requested data.
system.membus.snoop_filter.hit_multi_snoops            0                       # Number of snoops hitting in the snoop filter with multiple (>1) holders of the requested data.
system.membus.snoop_filter.hit_single_requests          166                       # Number of requests hitting in the snoop filter with a single holder of the requested data.
system.membus.snoop_filter.hit_single_snoops            0                       # Number of snoops hitting in the snoop filter with a single holder of the requested data.
system.membus.snoop_filter.tot_requests           807                       # Total number of requests made to the snoop filter.
system.membus.snoop_filter.tot_snoops               0                       # Total number of snoops made to the snoop filter.
system.membus.pwrStateResidencyTicks::UNDEFINED     37556000                       # Cumulative time (in ticks) in various power states
system.membus.trans_dist::ReadResp                590                       # Transaction distribution
system.membus.trans_dist::WritebackClean          148                       # Transaction distribution
system.membus.trans_dist::CleanEvict                1                       # Transaction distribution
system.membus.trans_dist::ReadExReq                68                       # Transaction distribution
system.membus.trans_dist::ReadExResp               68                       # Transaction distribution
system.membus.trans_dist::ReadCleanReq            469                       # Transaction distribution
system.membus.trans_dist::ReadSharedReq           121                       # Transaction distribution
system.membus.pkt_count_system.cpu.icache.mem_side::system.mem_ctrls.port         1086                       # Packet count per connected master and slave (bytes)
system.membus.pkt_count_system.cpu.dcache.mem_side::system.mem_ctrls.port          379                       # Packet count per connected master and slave (bytes)
system.membus.pkt_count::total                   1465                       # Packet count per connected master and slave (bytes)
system.membus.pkt_size_system.cpu.icache.mem_side::system.mem_ctrls.port        39488                       # Cumulative packet size per connected master and slave (bytes)
system.membus.pkt_size_system.cpu.dcache.mem_side::system.mem_ctrls.port        12096                       # Cumulative packet size per connected master and slave (bytes)
system.membus.pkt_size::total                   51584                       # Cumulative packet size per connected master and slave (bytes)
system.membus.snoops                                0                       # Total snoops (count)
system.membus.snoopTraffic                          0                       # Total snoop traffic (bytes)
system.membus.snoop_fanout::samples               658                       # Request fanout histogram
system.membus.snoop_fanout::mean             0.044073                       # Request fanout histogram
system.membus.snoop_fanout::stdev            0.205413                       # Request fanout histogram
system.membus.snoop_fanout::underflows              0      0.00%      0.00% # Request fanout histogram
system.membus.snoop_fanout::0                     629     95.59%     95.59% # Request fanout histogram
system.membus.snoop_fanout::1                      29      4.41%    100.00% # Request fanout histogram
system.membus.snoop_fanout::2                       0      0.00%    100.00% # Request fanout histogram
system.membus.snoop_fanout::overflows               0      0.00%    100.00% # Request fanout histogram
system.membus.snoop_fanout::min_value               0                       # Request fanout histogram
system.membus.snoop_fanout::max_value               1                       # Request fanout histogram
system.membus.snoop_fanout::total                 658                       # Request fanout histogram
system.membus.reqLayer0.occupancy             1501500                       # Layer occupancy (ticks)
system.membus.reqLayer0.utilization               4.0                       # Layer utilization (%)
system.membus.respLayer1.occupancy            2481000                       # Layer occupancy (ticks)
system.membus.respLayer1.utilization              6.6                       # Layer utilization (%)
system.membus.respLayer2.occupancy            1017250                       # Layer occupancy (ticks)
system.membus.respLayer2.utilization              2.7                       # Layer utilization (%)
system.voltage_domain.voltage                       1                       # Voltage in Volts
system.clk_domain.clock                          1000                       # Clock period in ticks
system.cpu_voltage_domain.voltage                   1                       # Voltage in Volts
system.mem_ctrls.pwrStateResidencyTicks::UNDEFINED     37556000                       # Cumulative time (in ticks) in various power states
system.mem_ctrls.bytes_read::.cpu.inst          30016                       # Number of bytes read from this memory
system.mem_ctrls.bytes_read::.cpu.data          12096                       # Number of bytes read from this memory
system.mem_ctrls.bytes_read::total              42112                       # Number of bytes read from this memory
system.mem_ctrls.bytes_inst_read::.cpu.inst        30016                       # Number of instructions bytes read from this memory
system.mem_ctrls.bytes_inst_read::total         30016                       # Number of instructions bytes read from this memory
system.mem_ctrls.num_reads::.cpu.inst             469                       # Number of read requests responded to by this memory
system.mem_ctrls.num_reads::.cpu.data             189                       # Number of read requests responded to by this memory
system.mem_ctrls.num_reads::total                 658                       # Number of read requests responded to by this memory
system.mem_ctrls.bw_read::.cpu.inst         799233145                       # Total read bandwidth from this memory (bytes/s)
system.mem_ctrls.bw_read::.cpu.data         322079029                       # Total read bandwidth from this memory (bytes/s)
system.mem_ctrls.bw_read::total            1121312174                       # Total read bandwidth from this memory (bytes/s)
system.mem_ctrls.bw_inst_read::.cpu.inst    799233145                       # Instruction read bandwidth from this memory (bytes/s)
system.mem_ctrls.bw_inst_read::total        799233145                       # Instruction read bandwidth from this memory (bytes/s)
system.mem_ctrls.bw_total::.cpu.inst        799233145                       # Total bandwidth to/from this memory (bytes/s)
system.mem_ctrls.bw_total::.cpu.data        322079029                       # Total bandwidth to/from this memory (bytes/s)
system.mem_ctrls.bw_total::total           1121312174                       # Total bandwidth to/from this memory (bytes/s)
system.mem_ctrls.avgPriority_.writebacks::samples       131.00                       # Average QoS priority value for accepted requests
system.mem_ctrls.avgPriority_.cpu.inst::samples       439.00                       # Average QoS priority value for accepted requests
system.mem_ctrls.avgPriority_.cpu.data::samples       188.00                       # Average QoS priority value for accepted requests
system.mem_ctrls.priorityMinLatency      0.000000018750                       # per QoS priority minimum request to response latency (s)
system.mem_ctrls.priorityMaxLatency      0.000037947750                       # per QoS priority maximum request to response latency (s)
system.mem_ctrls.numReadWriteTurnArounds            7                       # Number of turnarounds from READ to WRITE
system.mem_ctrls.numWriteReadTurnArounds            7                       # Number of turnarounds from WRITE to READ
system.mem_ctrls.numStayReadState                1384                       # Number of times bus staying in READ state
system.mem_ctrls.numStayWriteState                105                       # Number of times bus staying in WRITE state
system.mem_ctrls.readReqs                         658                       # Number of read requests accepted
system.mem_ctrls.writeReqs                        136                       # Number of write requests accepted
system.mem_ctrls.readBursts                       658                       # Number of DRAM read bursts, including those serviced by the write queue
system.mem_ctrls.writeBursts                      136                       # Number of DRAM write bursts, including those merged in the write queue
system.mem_ctrls.servicedByWrQ                     31                       # Number of DRAM read bursts serviced by the write queue
system.mem_ctrls.mergedWrBursts                     5                       # Number of DRAM write bursts merged with an existing one
system.mem_ctrls.neitherReadNorWriteReqs            0                       # Number of requests that are neither read nor write
system.mem_ctrls.perBankRdBursts::0                65                       # Per bank write bursts
system.mem_ctrls.perBankRdBursts::1                 2                       # Per bank write bursts
system.mem_ctrls.perBankRdBursts::2                37                       # Per bank write bursts
system.mem_ctrls.perBankRdBursts::3                58                       # Per bank write bursts
system.mem_ctrls.perBankRdBursts::4                15                       # Per bank write bursts
system.mem_ctrls.perBankRdBursts::5                32                       # Per bank write bursts
system.mem_ctrls.perBankRdBursts::6                53                       # Per bank write bursts
system.mem_ctrls.perBankRdBursts::7                39                       # Per bank write bursts
system.mem_ctrls.perBankRdBursts::8               125                       # Per bank write bursts
system.mem_ctrls.perBankRdBursts::9                71                       # Per bank write bursts
system.mem_ctrls.perBankRdBursts::10               23                       # Per bank write bursts
system.mem_ctrls.perBankRdBursts::11               67                       # Per bank write bursts
system.mem_ctrls.perBankRdBursts::12               23                       # Per bank write bursts
system.mem_ctrls.perBankRdBursts::13               11                       # Per bank write bursts
system.mem_ctrls.perBankRdBursts::14                5                       # Per bank write bursts
system.mem_ctrls.perBankRdBursts::15                1                       # Per bank write bursts
system.mem_ctrls.perBankWrBursts::0                17                       # Per bank write bursts
system.mem_ctrls.perBankWrBursts::1                 0                       # Per bank write bursts
system.mem_ctrls.perBankWrBursts::2                12                       # Per bank write bursts
system.mem_ctrls.perBankWrBursts::3                 7                       # Per bank write bursts
system.mem_ctrls.perBankWrBursts::4                 0                       # Per bank write bursts
system.mem_ctrls.perBankWrBursts::5                 1                       # Per bank write bursts
system.mem_ctrls.perBankWrBursts::6                 0                       # Per bank write bursts
system.mem_ctrls.perBankWrBursts::7                 7                       # Per bank write bursts
system.mem_ctrls.perBankWrBursts::8                33                       # Per bank write bursts
system.mem_ctrls.perBankWrBursts::9                 6                       # Per bank write bursts
system.mem_ctrls.perBankWrBursts::10                0                       # Per bank write bursts
system.mem_ctrls.perBankWrBursts::11               20                       # Per bank write bursts
system.mem_ctrls.perBankWrBursts::12                9                       # Per bank write bursts
system.mem_ctrls.perBankWrBursts::13                0                       # Per bank write bursts
system.mem_ctrls.perBankWrBursts::14                0                       # Per bank write bursts
system.mem_ctrls.perBankWrBursts::15                0                       # Per bank write bursts
system.mem_ctrls.avgRdQLen                       1.19                       # Average read queue length when enqueuing
system.mem_ctrls.avgWrQLen                      16.28                       # Average write queue length when enqueuing
system.mem_ctrls.totQLat                      5292750                       # Total ticks spent queuing
system.mem_ctrls.totBusLat                    3135000                       # Total ticks spent in databus transfers
system.mem_ctrls.totMemAccLat                17049000                       # Total ticks spent from burst creation until serviced by the DRAM
system.mem_ctrls.avgQLat                      8441.39                       # Average queueing delay per DRAM burst
system.mem_ctrls.avgBusLat                    5000.00                       # Average bus latency per DRAM burst
system.mem_ctrls.avgMemAccLat                27191.39                       # Average memory access latency per DRAM burst
system.mem_ctrls.numRdRetry                         0                       # Number of times read queue was full causing retry
system.mem_ctrls.numWrRetry                         0                       # Number of times write queue was full causing retry
system.mem_ctrls.readRowHits                      498                       # Number of row buffer hits during reads
system.mem_ctrls.writeRowHits                      96                       # Number of row buffer hits during writes
system.mem_ctrls.readRowHitRate                 79.43                       # Row buffer hit rate for reads
system.mem_ctrls.writeRowHitRate                73.28                       # Row buffer hit rate for writes
system.mem_ctrls.readPktSize::0                     0                       # Read request sizes (log2)
system.mem_ctrls.readPktSize::1                     0                       # Read request sizes (log2)
system.mem_ctrls.readPktSize::2                     0                       # Read request sizes (log2)
system.mem_ctrls.readPktSize::3                     0                       # Read request sizes (log2)
system.mem_ctrls.readPktSize::4                     0                       # Read request sizes (log2)
system.mem_ctrls.readPktSize::5                     0                       # Read request sizes (log2)
system.mem_ctrls.readPktSize::6                   658                       # Read request sizes (log2)
system.mem_ctrls.writePktSize::0                    0                       # Write request sizes (log2)
system.mem_ctrls.writePktSize::1                    0                       # Write request sizes (log2)
system.mem_ctrls.writePktSize::2                    0                       # Write request sizes (log2)
system.mem_ctrls.writePktSize::3                    0                       # Write request sizes (log2)
system.mem_ctrls.writePktSize::4                    0                       # Write request sizes (log2)
system.mem_ctrls.writePktSize::5                    0                       # Write request sizes (log2)
system.mem_ctrls.writePktSize::6                  136                       # Write request sizes (log2)
system.mem_ctrls.rdQLenPdf::0                     526                       # What read queue length does an incoming req see
system.mem_ctrls.rdQLenPdf::1                      95                       # What read queue length does an incoming req see
system.mem_ctrls.rdQLenPdf::2                       6                       # What read queue length does an incoming req see
system.mem_ctrls.rdQLenPdf::3                       0                       # What read queue length does an incoming req see
system.mem_ctrls.rdQLenPdf::4                       0                       # What read queue length does an incoming req see
system.mem_ctrls.rdQLenPdf::5                       0                       # What read queue length does an incoming req see
system.mem_ctrls.rdQLenPdf::6                       0                       # What read queue length does an incoming req see
system.mem_ctrls.rdQLenPdf::7                       0                       # What read queue length does an incoming req see
system.mem_ctrls.rdQLenPdf::8                       0                       # What read queue length does an incoming req see
system.mem_ctrls.rdQLenPdf::9                       0                       # What read queue length does an incoming req see
system.mem_ctrls.rdQLenPdf::10                      0                       # What read queue length does an incoming req see
system.mem_ctrls.rdQLenPdf::11                      0                       # What read queue length does an incoming req see
system.mem_ctrls.rdQLenPdf::12                      0                       # What read queue length does an incoming req see
system.mem_ctrls.rdQLenPdf::13                      0                       # What read queue length does an incoming req see
system.mem_ctrls.rdQLenPdf::14                      0                       # What read queue length does an incoming req see
system.mem_ctrls.rdQLenPdf::15                      0                       # What read queue length does an incoming req see
system.mem_ctrls.rdQLenPdf::16                      0                       # What read queue length does an incoming req see
system.mem_ctrls.rdQLenPdf::17                      0                       # What read queue length does an incoming req see
system.mem_ctrls.rdQLenPdf::18                      0                       # What read queue length does an incoming req see
system.mem_ctrls.rdQLenPdf::19                      0                       # What read queue length does an incoming req see
system.mem_ctrls.rdQLenPdf::20                      0                       # What read queue length does an incoming req see
system.mem_ctrls.rdQLenPdf::21                      0                       # What read queue length does an incoming req see
system.mem_ctrls.rdQLenPdf::22                      0                       # What read queue length does an incoming req see
system.mem_ctrls.rdQLenPdf::23                      0                       # What read queue length does an incoming req see
system.mem_ctrls.rdQLenPdf::24                      0                       # What read queue length does an incoming req see
system.mem_ctrls.rdQLenPdf::25                      0                       # What read queue length does an incoming req see
system.mem_ctrls.rdQLenPdf::26                      0                       # What read queue length does an incoming req see
system.mem_ctrls.rdQLenPdf::27                      0                       # What read queue length does an incoming req see
system.mem_ctrls.rdQLenPdf::28                      0                       # What read queue length does an incoming req see
system.mem_ctrls.rdQLenPdf::29                      0                       # What read queue length does an incoming req see
system.mem_ctrls.rdQLenPdf::30                      0                       # What read queue length does an incoming req see
system.mem_ctrls.rdQLenPdf::31                      0                       # What read queue length does an incoming req see
system.mem_ctrls.wrQLenPdf::0                       1                       # What write queue length does an incoming req see
system.mem_ctrls.wrQLenPdf::1                       1                       # What write queue length does an incoming req see
system.mem_ctrls.wrQLenPdf::2                       1                       # What write queue length does an incoming req see
system.mem_ctrls.wrQLenPdf::3                       1                       # What write queue length does an incoming req see
system.mem_ctrls.wrQLenPdf::4                       1                       # What write queue length does an incoming req see
system.mem_ctrls.wrQLenPdf::5                       1                       # What write queue length does an incoming req see
system.mem_ctrls.wrQLenPdf::6                       1                       # What write queue length does an incoming req see
system.mem_ctrls.wrQLenPdf::7                       1                       # What write queue length does an incoming req see
system.mem_ctrls.wrQLenPdf::8                       1                       # What write queue length does an incoming req see
system.mem_ctrls.wrQLenPdf::9                       1                       # What write queue length does an incoming req see
system.mem_ctrls.wrQLenPdf::10                      1                       # What write queue length does an incoming req see
system.mem_ctrls.wrQLenPdf::11                      1                       # What write queue length does an incoming req see
system.mem_ctrls.wrQLenPdf::12                      1                       # What write queue length does an incoming req see
system.mem_ctrls.wrQLenPdf::13                      1                       # What write queue length does an incoming req see
system.mem_ctrls.wrQLenPdf::14                      1                       # What write queue length does an incoming req see
system.mem_ctrls.wrQLenPdf::15                      1                       # What write queue length does an incoming req see
system.mem_ctrls.wrQLenPdf::16                      1                       # What write queue length does an incoming req see
system.mem_ctrls.wrQLenPdf::17                      8                       # What write queue length does an incoming req see
system.mem_ctrls.wrQLenPdf::18                      8                       # What write queue length does an incoming req see
system.mem_ctrls.wrQLenPdf::19                      7                       # What write queue length does an incoming req see
system.mem_ctrls.wrQLenPdf::20                      7                       # What write queue length does an incoming req see
system.mem_ctrls.wrQLenPdf::21                      7                       # What write queue length does an incoming req see
system.mem_ctrls.wrQLenPdf::22                      7                       # What write queue length does an incoming req see
system.mem_ctrls.wrQLenPdf::23                      7                       # What write queue length does an incoming req see
system.mem_ctrls.wrQLenPdf::24                      7                       # What write queue length does an incoming req see
system.mem_ctrls.wrQLenPdf::25                      7                       # What write queue length does an incoming req see
system.mem_ctrls.wrQLenPdf::26                      7                       # What write queue length does an incoming req see
system.mem_ctrls.wrQLenPdf::27                      7                       # What write queue length does an incoming req see
system.mem_ctrls.wrQLenPdf::28                      7                       # What write queue length does an incoming req see
system.mem_ctrls.wrQLenPdf::29                      7                       # What write queue length does an incoming req see
system.mem_ctrls.wrQLenPdf::30                      7                       # What write queue length does an incoming req see
system.mem_ctrls.wrQLenPdf::31                      7                       # What write queue length does an incoming req see
system.mem_ctrls.wrQLenPdf::32                      7                       # What write queue length does an incoming req see
system.mem_ctrls.wrQLenPdf::33                      0                       # What write queue length does an incoming req see
system.mem_ctrls.wrQLenPdf::34                      0                       # What write queue length does an incoming req see
system.mem_ctrls.wrQLenPdf::35                      0                       # What write queue length does an incoming req see
system.mem_ctrls.wrQLenPdf::36                      0                       # What write queue length does an incoming req see
system.mem_ctrls.wrQLenPdf::37                      0                       # What write queue length does an incoming req see
system.mem_ctrls.wrQLenPdf::38                      0                       # What write queue length does an incoming req see
system.mem_ctrls.wrQLenPdf::39                      0                       # What write queue length does an incoming req see
system.mem_ctrls.wrQLenPdf::40                      0                       # What write queue length does an incoming req see
system.mem_ctrls.wrQLenPdf::41                      0                       # What write queue length does an incoming req see
system.mem_ctrls.wrQLenPdf::42                      0                       # What write queue length does an incoming req see
system.mem_ctrls.wrQLenPdf::43                      0                       # What write queue length does an incoming req see
system.mem_ctrls.wrQLenPdf::44                      0                       # What write queue length does an incoming req see
system.mem_ctrls.wrQLenPdf::45                      0                       # What write queue length does an incoming req see
system.mem_ctrls.wrQLenPdf::46                      0                       # What write queue length does an incoming req see
system.mem_ctrls.wrQLenPdf::47                      0                       # What write queue length does an incoming req see
system.mem_ctrls.wrQLenPdf::48                      0                       # What write queue length does an incoming req see
system.mem_ctrls.wrQLenPdf::49                      0                       # What write queue length does an incoming req see
system.mem_ctrls.wrQLenPdf::50                      0                       # What write queue length does an incoming req see
system.mem_ctrls.wrQLenPdf::51                      0                       # What write queue length does an incoming req see
system.mem_ctrls.wrQLenPdf::52                      0                       # What write queue length does an incoming req see
system.mem_ctrls.wrQLenPdf::53                      0                       # What write queue length does an incoming req see
system.mem_ctrls.wrQLenPdf::54                      0                       # What write queue length does an incoming req see
system.mem_ctrls.wrQLenPdf::55                      0                       # What write queue length does an incoming req see
system.mem_ctrls.wrQLenPdf::56                      0                       # What write queue length does an incoming req see
system.mem_ctrls.wrQLenPdf::57                      0                       # What write queue length does an incoming req see
system.mem_ctrls.wrQLenPdf::58                      0                       # What write queue length does an incoming req see
system.mem_ctrls.wrQLenPdf::59                      0                       # What write queue length does an incoming req see
system.mem_ctrls.wrQLenPdf::60                      0                       # What write queue length does an incoming req see
system.mem_ctrls.wrQLenPdf::61                      0                       # What write queue length does an incoming req see
system.mem_ctrls.wrQLenPdf::62                      0                       # What write queue length does an incoming req see
system.mem_ctrls.wrQLenPdf::63                      0                       # What write queue length does an incoming req see
system.mem_ctrls.bytesPerActivate::samples          135                       # Bytes accessed per row activation
system.mem_ctrls.bytesPerActivate::mean    324.740741                       # Bytes accessed per row activation
system.mem_ctrls.bytesPerActivate::gmean   200.418136                       # Bytes accessed per row activation
system.mem_ctrls.bytesPerActivate::stdev   322.912561                       # Bytes accessed per row activation
system.mem_ctrls.bytesPerActivate::0-127           42     31.11%     31.11% # Bytes accessed per row activation
system.mem_ctrls.bytesPerActivate::128-255           34     25.19%     56.30% # Bytes accessed per row activation
system.mem_ctrls.bytesPerActivate::256-383           18     13.33%     69.63% # Bytes accessed per row activation
system.mem_ctrls.bytesPerActivate::384-511           10      7.41%     77.04% # Bytes accessed per row activation
system.mem_ctrls.bytesPerActivate::512-639            4      2.96%     80.00% # Bytes accessed per row activation
system.mem_ctrls.bytesPerActivate::640-767            5      3.70%     83.70% # Bytes accessed per row activation
system.mem_ctrls.bytesPerActivate::768-895            4      2.96%     86.67% # Bytes accessed per row activation
system.mem_ctrls.bytesPerActivate::896-1023            4      2.96%     89.63% # Bytes accessed per row activation
system.mem_ctrls.bytesPerActivate::1024-1151           14     10.37%    100.00% # Bytes accessed per row activation
system.mem_ctrls.bytesPerActivate::total          135                       # Bytes accessed per row activation
system.mem_ctrls.rdPerTurnAround::samples            7                       # Reads before turning the bus around for writes
system.mem_ctrls.rdPerTurnAround::mean      83.571429                       # Reads before turning the bus around for writes
system.mem_ctrls.rdPerTurnAround::gmean     47.683151                       # Reads before turning the bus around for writes
system.mem_ctrls.rdPerTurnAround::stdev    125.021141                       # Reads before turning the bus around for writes
system.mem_ctrls.rdPerTurnAround::16-31             1     14.29%     14.29% # Reads before turning the bus around for writes
system.mem_ctrls.rdPerTurnAround::32-47             4     57.14%     71.43% # Reads before turning the bus around for writes
system.mem_ctrls.rdPerTurnAround::64-79             1     14.29%     85.71% # Reads before turning the bus around for writes
system.mem_ctrls.rdPerTurnAround::352-367            1     14.29%    100.00% # Reads before turning the bus around for writes
system.mem_ctrls.rdPerTurnAround::total             7                       # Reads before turning the bus around for writes
system.mem_ctrls.wrPerTurnAround::samples            7                       # Writes before turning the bus around for reads
system.mem_ctrls.wrPerTurnAround::mean             16                       # Writes before turning the bus around for reads
system.mem_ctrls.wrPerTurnAround::gmean     16.000000                       # Writes before turning the bus around for reads
system.mem_ctrls.wrPerTurnAround::16                7    100.00%    100.00% # Writes before turning the bus around for reads
system.mem_ctrls.wrPerTurnAround::total             7                       # Writes before turning the bus around for reads
system.mem_ctrls.bytesReadDRAM                  40128                       # Total number of bytes read from DRAM
system.mem_ctrls.bytesReadWrQ                    1984                       # Total number of bytes read from write queue
system.mem_ctrls.bytesWritten                    7168                       # Total number of bytes written to DRAM
system.mem_ctrls.bytesReadSys                   42112                       # Total read bytes from the system interface side
system.mem_ctrls.bytesWrittenSys                 8704                       # Total written bytes from the system interface side
system.mem_ctrls.avgRdBW                      1068.48                       # Average DRAM read bandwidth in MiByte/s
system.mem_ctrls.avgWrBW                       190.86                       # Average achieved write bandwidth in MiByte/s
system.mem_ctrls.avgRdBWSys                   1121.31                       # Average system read bandwidth in MiByte/s
system.mem_ctrls.avgWrBWSys                    231.76                       # Average system write bandwidth in MiByte/s
system.mem_ctrls.peakBW                      12800.00                       # Theoretical peak bandwidth in MiByte/s
system.mem_ctrls.busUtil                         9.84                       # Data bus utilization in percentage
system.mem_ctrls.busUtilRead                     8.35                       # Data bus utilization in percentage for reads
system.mem_ctrls.busUtilWrite                    1.49                       # Data bus utilization in percentage for writes
system.mem_ctrls.totGap                      37497500                       # Total gap between requests
system.mem_ctrls.avgGap                      47226.07                       # Average gap between requests
system.mem_ctrls.masterReadBytes::.cpu.inst        28096                       # Per-master bytes read from memory
system.mem_ctrls.masterReadBytes::.cpu.data        12032                       # Per-master bytes read from memory
system.mem_ctrls.masterWriteBytes::.writebacks         7168                       # Per-master bytes write to memory
system.mem_ctrls.masterReadRate::.cpu.inst 748109489.828522801399                       # Per-master bytes read from memory rate (Bytes/sec)
system.mem_ctrls.masterReadRate::.cpu.data 320374906.805836617947                       # Per-master bytes read from memory rate (Bytes/sec)
system.mem_ctrls.masterWriteRate::.writebacks 190861646.607732474804                       # Per-master bytes write to memory rate (Bytes/sec)
system.mem_ctrls.masterReadAccesses::.cpu.inst          469                       # Per-master read serviced memory accesses
system.mem_ctrls.masterReadAccesses::.cpu.data          189                       # Per-master read serviced memory accesses
system.mem_ctrls.masterWriteAccesses::.writebacks          136                       # Per-master write serviced memory accesses
system.mem_ctrls.masterReadTotalLat::.cpu.inst     11005000                       # Per-master read total memory access latency
system.mem_ctrls.masterReadTotalLat::.cpu.data      6044000                       # Per-master read total memory access latency
system.mem_ctrls.masterWriteTotalLat::.writebacks    538263500                       # Per-master write total memory access latency
system.mem_ctrls.masterReadAvgLat::.cpu.inst     23464.82                       # Per-master read average memory access latency
system.mem_ctrls.masterReadAvgLat::.cpu.data     31978.84                       # Per-master read average memory access latency
system.mem_ctrls.masterWriteAvgLat::.writebacks   3957819.85                       # Per-master write average memory access latency
system.mem_ctrls.pageHitRate                    78.36                       # Row buffer hit rate, read and write combined
system.mem_ctrls.rank1.actEnergy               621180                       # Energy for activate commands per rank (pJ)
system.mem_ctrls.rank1.preEnergy               311190                       # Energy for precharge commands per rank (pJ)
system.mem_ctrls.rank1.readEnergy             2327640                       # Energy for read commands per rank (pJ)
system.mem_ctrls.rank1.writeEnergy             354960                       # Energy for write commands per rank (pJ)
system.mem_ctrls.rank1.refreshEnergy     2458560.000000                       # Energy for refresh commands per rank (pJ)
system.mem_ctrls.rank1.actBackEnergy         17031600                       # Energy for active background per rank (pJ)
system.mem_ctrls.rank1.preBackEnergy            79200                       # Energy for precharge background per rank (pJ)
system.mem_ctrls.rank1.actPowerDownEnergy            0                       # Energy for active power-down per rank (pJ)
system.mem_ctrls.rank1.prePowerDownEnergy            0                       # Energy for precharge power-down per rank (pJ)
system.mem_ctrls.rank1.selfRefreshEnergy            0                       # Energy for self refresh per rank (pJ)
system.mem_ctrls.rank1.totalEnergy           23184330                       # Total energy per rank (pJ)
system.mem_ctrls.rank1.averagePower        617.326925                       # Core power per rank (mW)
system.mem_ctrls.rank1.totalIdleTime                0                       # Total Idle time Per DRAM Rank
system.mem_ctrls.rank1.memoryStateTime::IDLE        82000                       # Time in different power states
system.mem_ctrls.rank1.memoryStateTime::REF      1040000                       # Time in different power states
system.mem_ctrls.rank1.memoryStateTime::SREF            0                       # Time in different power states
system.mem_ctrls.rank1.memoryStateTime::PRE_PDN            0                       # Time in different power states
system.mem_ctrls.rank1.memoryStateTime::ACT     36434000                       # Time in different power states
system.mem_ctrls.rank1.memoryStateTime::ACT_PDN            0                       # Time in different power states
system.mem_ctrls.rank0.actEnergy               414120                       # Energy for activate commands per rank (pJ)
system.mem_ctrls.rank0.preEnergy               201135                       # Energy for precharge commands per rank (pJ)
system.mem_ctrls.rank0.readEnergy             2149140                       # Energy for read commands per rank (pJ)
system.mem_ctrls.rank0.writeEnergy             229680                       # Energy for write commands per rank (pJ)
system.mem_ctrls.rank0.refreshEnergy     2458560.000000                       # Energy for refresh commands per rank (pJ)
system.mem_ctrls.rank0.actBackEnergy         15879060                       # Energy for active background per rank (pJ)
system.mem_ctrls.rank0.preBackEnergy          1049760                       # Energy for precharge background per rank (pJ)
system.mem_ctrls.rank0.actPowerDownEnergy            0                       # Energy for active power-down per rank (pJ)
system.mem_ctrls.rank0.prePowerDownEnergy            0                       # Energy for precharge power-down per rank (pJ)
system.mem_ctrls.rank0.selfRefreshEnergy            0                       # Energy for self refresh per rank (pJ)
system.mem_ctrls.rank0.totalEnergy           22381455                       # Total energy per rank (pJ)
system.mem_ctrls.rank0.averagePower        595.948850                       # Core power per rank (mW)
system.mem_ctrls.rank0.totalIdleTime                0                       # Total Idle time Per DRAM Rank
system.mem_ctrls.rank0.memoryStateTime::IDLE      2594750                       # Time in different power states
system.mem_ctrls.rank0.memoryStateTime::REF      1040000                       # Time in different power states
system.mem_ctrls.rank0.memoryStateTime::SREF            0                       # Time in different power states
system.mem_ctrls.rank0.memoryStateTime::PRE_PDN            0                       # Time in different power states
system.mem_ctrls.rank0.memoryStateTime::ACT     33921250                       # Time in different power states
system.mem_ctrls.rank0.memoryStateTime::ACT_PDN            0                       # Time in different power states
system.cpu_clk_domain.clock                       500                       # Clock period in ticks
system.cpu.pwrStateResidencyTicks::ON        37556000                       # Cumulative time (in ticks) in various power states
system.cpu.icache.pwrStateResidencyTicks::UNDEFINED     37556000                       # Cumulative time (in ticks) in various power states
system.cpu.icache.demand_hits::.cpu.inst         3152                       # number of demand (read+write) hits
system.cpu.icache.demand_hits::total             3152                       # number of demand (read+write) hits
system.cpu.icache.overall_hits::.cpu.inst         3152                       # number of overall hits
system.cpu.icache.overall_hits::total            3152                       # number of overall hits
system.cpu.icache.demand_misses::.cpu.inst          469                       # number of demand (read+write) misses
system.cpu.icache.demand_misses::total            469                       # number of demand (read+write) misses
system.cpu.icache.overall_misses::.cpu.inst          469                       # number of overall misses
system.cpu.icache.overall_misses::total           469                       # number of overall misses
system.cpu.icache.demand_miss_latency::.cpu.inst     26158000                       # number of demand (read+write) miss cycles
system.cpu.icache.demand_miss_latency::total     26158000                       # number of demand (read+write) miss cycles
system.cpu.icache.overall_miss_latency::.cpu.inst     26158000                       # number of overall miss cycles
system.cpu.icache.overall_miss_latency::total     26158000                       # number of overall miss cycles
system.cpu.icache.demand_accesses::.cpu.inst         3621                       # number of demand (read+write) accesses
system.cpu.icache.demand_accesses::total         3621                       # number of demand (read+write) accesses
system.cpu.icache.overall_accesses::.cpu.inst         3621                       # number of overall (read+write) accesses
system.cpu.icache.overall_accesses::total         3621                       # number of overall (read+write) accesses
system.cpu.icache.demand_miss_rate::.cpu.inst     0.129522                       # miss rate for demand accesses
system.cpu.icache.demand_miss_rate::total     0.129522                       # miss rate for demand accesses
system.cpu.icache.overall_miss_rate::.cpu.inst     0.129522                       # miss rate for overall accesses
system.cpu.icache.overall_miss_rate::total     0.129522                       # miss rate for overall accesses
system.cpu.icache.demand_avg_miss_latency::.cpu.inst 55773.987207                       # average overall miss latency
system.cpu.icache.demand_avg_miss_latency::total 55773.987207                       # average overall miss latency
system.cpu.icache.overall_avg_miss_latency::.cpu.inst 55773.987207                       # average overall miss latency
system.cpu.icache.overall_avg_miss_latency::total 55773.987207                       # average overall miss latency
system.cpu.icache.blocked_cycles::no_mshrs            0                       # number of cycles access was blocked
system.cpu.icache.blocked_cycles::no_targets            0                       # number of cycles access was blocked
system.cpu.icache.blocked::no_mshrs                 0                       # number of cycles access was blocked
system.cpu.icache.blocked::no_targets               0                       # number of cycles access was blocked
system.cpu.icache.avg_blocked_cycles::no_mshrs          nan                       # average number of cycles each access was blocked
system.cpu.icache.avg_blocked_cycles::no_targets          nan                       # average number of cycles each access was blocked
system.cpu.icache.writebacks::.writebacks          148                       # number of writebacks
system.cpu.icache.writebacks::total               148                       # number of writebacks
system.cpu.icache.demand_mshr_misses::.cpu.inst          469                       # number of demand (read+write) MSHR misses
system.cpu.icache.demand_mshr_misses::total          469                       # number of demand (read+write) MSHR misses
system.cpu.icache.overall_mshr_misses::.cpu.inst          469                       # number of overall MSHR misses
system.cpu.icache.overall_mshr_misses::total          469                       # number of overall MSHR misses
system.cpu.icache.demand_mshr_miss_latency::.cpu.inst     25689000                       # number of demand (read+write) MSHR miss cycles
system.cpu.icache.demand_mshr_miss_latency::total     25689000                       # number of demand (read+write) MSHR miss cycles
system.cpu.icache.overall_mshr_miss_latency::.cpu.inst     25689000                       # number of overall MSHR miss cycles
system.cpu.icache.overall_mshr_miss_latency::total     25689000                       # number of overall MSHR miss cycles
system.cpu.icache.demand_mshr_miss_rate::.cpu.inst     0.129522                       # mshr miss rate for demand accesses
system.cpu.icache.demand_mshr_miss_rate::total     0.129522                       # mshr miss rate for demand accesses
system.cpu.icache.overall_mshr_miss_rate::.cpu.inst     0.129522                       # mshr miss rate for overall accesses
system.cpu.icache.overall_mshr_miss_rate::total     0.129522                       # mshr miss rate for overall accesses
system.cpu.icache.demand_avg_mshr_miss_latency::.cpu.inst 54773.987207                       # average overall mshr miss latency
system.cpu.icache.demand_avg_mshr_miss_latency::total 54773.987207                       # average overall mshr miss latency
system.cpu.icache.overall_avg_mshr_miss_latency::.cpu.inst 54773.987207                       # average overall mshr miss latency
system.cpu.icache.overall_avg_mshr_miss_latency::total 54773.987207                       # average overall mshr miss latency
system.cpu.icache.replacements                    148                       # number of replacements
system.cpu.icache.ReadReq_hits::.cpu.inst         3152                       # number of ReadReq hits
system.cpu.icache.ReadReq_hits::total            3152                       # number of ReadReq hits
system.cpu.icache.ReadReq_misses::.cpu.inst          469                       # number of ReadReq misses
system.cpu.icache.ReadReq_misses::total           469                       # number of ReadReq misses
system.cpu.icache.ReadReq_miss_latency::.cpu.inst     26158000                       # number of ReadReq miss cycles
system.cpu.icache.ReadReq_miss_latency::total     26158000                       # number of ReadReq miss cycles
system.cpu.icache.ReadReq_accesses::.cpu.inst         3621                       # number of ReadReq accesses(hits+misses)
system.cpu.icache.ReadReq_accesses::total         3621                       # number of ReadReq accesses(hits+misses)
system.cpu.icache.ReadReq_miss_rate::.cpu.inst     0.129522                       # miss rate for ReadReq accesses
system.cpu.icache.ReadReq_miss_rate::total     0.129522                       # miss rate for ReadReq accesses
system.cpu.icache.ReadReq_avg_miss_latency::.cpu.inst 55773.987207                       # average ReadReq miss latency
system.cpu.icache.ReadReq_avg_miss_latency::total 55773.987207                       # average ReadReq miss latency
system.cpu.icache.ReadReq_mshr_misses::.cpu.inst          469                       # number of ReadReq MSHR misses
system.cpu.icache.ReadReq_mshr_misses::total          469                       # number of ReadReq MSHR misses
system.cpu.icache.ReadReq_mshr_miss_latency::.cpu.inst     25689000                       # number of ReadReq MSHR miss cycles
system.cpu.icache.ReadReq_mshr_miss_latency::total     25689000                       # number of ReadReq MSHR miss cycles
system.cpu.icache.ReadReq_mshr_miss_rate::.cpu.inst     0.129522                       # mshr miss rate for ReadReq accesses
system.cpu.icache.ReadReq_mshr_miss_rate::total     0.129522                       # mshr miss rate for ReadReq accesses
system.cpu.icache.ReadReq_avg_mshr_miss_latency::.cpu.inst 54773.987207                       # average ReadReq mshr miss latency
system.cpu.icache.ReadReq_avg_mshr_miss_latency::total 54773.987207                       # average ReadReq mshr miss latency
system.cpu.icache.tags.pwrStateResidencyTicks::UNDEFINED     37556000                       # Cumulative time (in ticks) in various power states
system.cpu.icache.tags.tagsinuse           180.958226                       # Cycle average of tags in use
system.cpu.icache.tags.total_refs                3621                       # Total number of references to valid blocks.
system.cpu.icache.tags.sampled_refs               469                       # Sample count of references to valid blocks.
system.cpu.icache.tags.avg_refs              7.720682                       # Average number of references to valid blocks.
system.cpu.icache.tags.warmup_cycle             77000                       # Cycle when the warmup percentage was hit.
system.cpu.icache.tags.occ_blocks::.cpu.inst   180.958226                       # Average occupied blocks per requestor
system.cpu.icache.tags.occ_percent::.cpu.inst     0.353434                       # Average percentage of cache occupancy
system.cpu.icache.tags.occ_percent::total     0.353434                       # Average percentage of cache occupancy
system.cpu.icache.tags.occ_task_id_blocks::1024          321                       # Occupied blocks per task id
system.cpu.icache.tags.age_task_id_blocks_1024::0          125                       # Occupied blocks per task id
system.cpu.icache.tags.age_task_id_blocks_1024::1          196                       # Occupied blocks per task id
system.cpu.icache.tags.occ_task_id_percent::1024     0.626953                       # Percentage of cache occupancy per task id
system.cpu.icache.tags.tag_accesses              7711                       # Number of tag accesses
system.cpu.icache.tags.data_accesses             7711                       # Number of data accesses
system.cpu.dtb.walker.pwrStateResidencyTicks::UNDEFINED     37556000                       # Cumulative time (in ticks) in various power states
system.cpu.dtb.stage2_mmu.stage2_tlb.walker.pwrStateResidencyTicks::UNDEFINED     37556000                       # Cumulative time (in ticks) in various power states
system.cpu.dcache.pwrStateResidencyTicks::UNDEFINED     37556000                       # Cumulative time (in ticks) in various power states
system.cpu.dcache.demand_hits::.cpu.data         2989                       # number of demand (read+write) hits
system.cpu.dcache.demand_hits::total             2989                       # number of demand (read+write) hits
system.cpu.dcache.overall_hits::.cpu.data         3008                       # number of overall hits
system.cpu.dcache.overall_hits::total            3008                       # number of overall hits
system.cpu.dcache.demand_misses::.cpu.data          237                       # number of demand (read+write) misses
system.cpu.dcache.demand_misses::total            237                       # number of demand (read+write) misses
system.cpu.dcache.overall_misses::.cpu.data          247                       # number of overall misses
system.cpu.dcache.overall_misses::total           247                       # number of overall misses
system.cpu.dcache.demand_miss_latency::.cpu.data     15321500                       # number of demand (read+write) miss cycles
system.cpu.dcache.demand_miss_latency::total     15321500                       # number of demand (read+write) miss cycles
system.cpu.dcache.overall_miss_latency::.cpu.data     15321500                       # number of overall miss cycles
system.cpu.dcache.overall_miss_latency::total     15321500                       # number of overall miss cycles
system.cpu.dcache.demand_accesses::.cpu.data         3226                       # number of demand (read+write) accesses
system.cpu.dcache.demand_accesses::total         3226                       # number of demand (read+write) accesses
system.cpu.dcache.overall_accesses::.cpu.data         3255                       # number of overall (read+write) accesses
system.cpu.dcache.overall_accesses::total         3255                       # number of overall (read+write) accesses
system.cpu.dcache.demand_miss_rate::.cpu.data     0.073466                       # miss rate for demand accesses
system.cpu.dcache.demand_miss_rate::total     0.073466                       # miss rate for demand accesses
system.cpu.dcache.overall_miss_rate::.cpu.data     0.075883                       # miss rate for overall accesses
system.cpu.dcache.overall_miss_rate::total     0.075883                       # miss rate for overall accesses
system.cpu.dcache.demand_avg_miss_latency::.cpu.data 64647.679325                       # average overall miss latency
system.cpu.dcache.demand_avg_miss_latency::total 64647.679325                       # average overall miss latency
system.cpu.dcache.overall_avg_miss_latency::.cpu.data 62030.364372                       # average overall miss latency
system.cpu.dcache.overall_avg_miss_latency::total 62030.364372                       # average overall miss latency
system.cpu.dcache.blocked_cycles::no_mshrs            0                       # number of cycles access was blocked
system.cpu.dcache.blocked_cycles::no_targets            0                       # number of cycles access was blocked
system.cpu.dcache.blocked::no_mshrs                 0                       # number of cycles access was blocked
system.cpu.dcache.blocked::no_targets               0                       # number of cycles access was blocked
system.cpu.dcache.avg_blocked_cycles::no_mshrs          nan                       # average number of cycles each access was blocked
system.cpu.dcache.avg_blocked_cycles::no_targets          nan                       # average number of cycles each access was blocked
system.cpu.dcache.demand_mshr_hits::.cpu.data           55                       # number of demand (read+write) MSHR hits
system.cpu.dcache.demand_mshr_hits::total           55                       # number of demand (read+write) MSHR hits
system.cpu.dcache.overall_mshr_hits::.cpu.data           55                       # number of overall MSHR hits
system.cpu.dcache.overall_mshr_hits::total           55                       # number of overall MSHR hits
system.cpu.dcache.demand_mshr_misses::.cpu.data          182                       # number of demand (read+write) MSHR misses
system.cpu.dcache.demand_mshr_misses::total          182                       # number of demand (read+write) MSHR misses
system.cpu.dcache.overall_mshr_misses::.cpu.data          189                       # number of overall MSHR misses
system.cpu.dcache.overall_mshr_misses::total          189                       # number of overall MSHR misses
system.cpu.dcache.demand_mshr_miss_latency::.cpu.data     11637000                       # number of demand (read+write) MSHR miss cycles
system.cpu.dcache.demand_mshr_miss_latency::total     11637000                       # number of demand (read+write) MSHR miss cycles
system.cpu.dcache.overall_mshr_miss_latency::.cpu.data     12046500                       # number of overall MSHR miss cycles
system.cpu.dcache.overall_mshr_miss_latency::total     12046500                       # number of overall MSHR miss cycles
system.cpu.dcache.demand_mshr_miss_rate::.cpu.data     0.056417                       # mshr miss rate for demand accesses
system.cpu.dcache.demand_mshr_miss_rate::total     0.056417                       # mshr miss rate for demand accesses
system.cpu.dcache.overall_mshr_miss_rate::.cpu.data     0.058065                       # mshr miss rate for overall accesses
system.cpu.dcache.overall_mshr_miss_rate::total     0.058065                       # mshr miss rate for overall accesses
system.cpu.dcache.demand_avg_mshr_miss_latency::.cpu.data 63939.560440                       # average overall mshr miss latency
system.cpu.dcache.demand_avg_mshr_miss_latency::total 63939.560440                       # average overall mshr miss latency
system.cpu.dcache.overall_avg_mshr_miss_latency::.cpu.data 63738.095238                       # average overall mshr miss latency
system.cpu.dcache.overall_avg_mshr_miss_latency::total 63738.095238                       # average overall mshr miss latency
system.cpu.dcache.replacements                      1                       # number of replacements
system.cpu.dcache.ReadReq_hits::.cpu.data         1533                       # number of ReadReq hits
system.cpu.dcache.ReadReq_hits::total            1533                       # number of ReadReq hits
system.cpu.dcache.ReadReq_misses::.cpu.data          119                       # number of ReadReq misses
system.cpu.dcache.ReadReq_misses::total           119                       # number of ReadReq misses
system.cpu.dcache.ReadReq_miss_latency::.cpu.data      7936000                       # number of ReadReq miss cycles
system.cpu.dcache.ReadReq_miss_latency::total      7936000                       # number of ReadReq miss cycles
system.cpu.dcache.ReadReq_accesses::.cpu.data         1652                       # number of ReadReq accesses(hits+misses)
system.cpu.dcache.ReadReq_accesses::total         1652                       # number of ReadReq accesses(hits+misses)
system.cpu.dcache.ReadReq_miss_rate::.cpu.data     0.072034                       # miss rate for ReadReq accesses
system.cpu.dcache.ReadReq_miss_rate::total     0.072034                       # miss rate for ReadReq accesses
system.cpu.dcache.ReadReq_avg_miss_latency::.cpu.data 66689.075630                       # average ReadReq miss latency
system.cpu.dcache.ReadReq_avg_miss_latency::total 66689.075630                       # average ReadReq miss latency
system.cpu.dcache.ReadReq_mshr_hits::.cpu.data            5                       # number of ReadReq MSHR hits
system.cpu.dcache.ReadReq_mshr_hits::total            5                       # number of ReadReq MSHR hits
system.cpu.dcache.ReadReq_mshr_misses::.cpu.data          114                       # number of ReadReq MSHR misses
system.cpu.dcache.ReadReq_mshr_misses::total          114                       # number of ReadReq MSHR misses
system.cpu.dcache.ReadReq_mshr_miss_latency::.cpu.data      7495000                       # number of ReadReq MSHR miss cycles
system.cpu.dcache.ReadReq_mshr_miss_latency::total      7495000                       # number of ReadReq MSHR miss cycles
system.cpu.dcache.ReadReq_mshr_miss_rate::.cpu.data     0.069007                       # mshr miss rate for ReadReq accesses
system.cpu.dcache.ReadReq_mshr_miss_rate::total     0.069007                       # mshr miss rate for ReadReq accesses
system.cpu.dcache.ReadReq_avg_mshr_miss_latency::.cpu.data 65745.614035                       # average ReadReq mshr miss latency
system.cpu.dcache.ReadReq_avg_mshr_miss_latency::total 65745.614035                       # average ReadReq mshr miss latency
system.cpu.dcache.WriteReq_hits::.cpu.data         1456                       # number of WriteReq hits
system.cpu.dcache.WriteReq_hits::total           1456                       # number of WriteReq hits
system.cpu.dcache.WriteReq_misses::.cpu.data          118                       # number of WriteReq misses
system.cpu.dcache.WriteReq_misses::total          118                       # number of WriteReq misses
system.cpu.dcache.WriteReq_miss_latency::.cpu.data      7385500                       # number of WriteReq miss cycles
system.cpu.dcache.WriteReq_miss_latency::total      7385500                       # number of WriteReq miss cycles
system.cpu.dcache.WriteReq_accesses::.cpu.data         1574                       # number of WriteReq accesses(hits+misses)
system.cpu.dcache.WriteReq_accesses::total         1574                       # number of WriteReq accesses(hits+misses)
system.cpu.dcache.WriteReq_miss_rate::.cpu.data     0.074968                       # miss rate for WriteReq accesses
system.cpu.dcache.WriteReq_miss_rate::total     0.074968                       # miss rate for WriteReq accesses
system.cpu.dcache.WriteReq_avg_miss_latency::.cpu.data 62588.983051                       # average WriteReq miss latency
system.cpu.dcache.WriteReq_avg_miss_latency::total 62588.983051                       # average WriteReq miss latency
system.cpu.dcache.WriteReq_mshr_hits::.cpu.data           50                       # number of WriteReq MSHR hits
system.cpu.dcache.WriteReq_mshr_hits::total           50                       # number of WriteReq MSHR hits
system.cpu.dcache.WriteReq_mshr_misses::.cpu.data           68                       # number of WriteReq MSHR misses
system.cpu.dcache.WriteReq_mshr_misses::total           68                       # number of WriteReq MSHR misses
system.cpu.dcache.WriteReq_mshr_miss_latency::.cpu.data      4142000                       # number of WriteReq MSHR miss cycles
system.cpu.dcache.WriteReq_mshr_miss_latency::total      4142000                       # number of WriteReq MSHR miss cycles
system.cpu.dcache.WriteReq_mshr_miss_rate::.cpu.data     0.043202                       # mshr miss rate for WriteReq accesses
system.cpu.dcache.WriteReq_mshr_miss_rate::total     0.043202                       # mshr miss rate for WriteReq accesses
system.cpu.dcache.WriteReq_avg_mshr_miss_latency::.cpu.data 60911.764706                       # average WriteReq mshr miss latency
system.cpu.dcache.WriteReq_avg_mshr_miss_latency::total 60911.764706                       # average WriteReq mshr miss latency
system.cpu.dcache.SoftPFReq_hits::.cpu.data           19                       # number of SoftPFReq hits
system.cpu.dcache.SoftPFReq_hits::total            19                       # number of SoftPFReq hits
system.cpu.dcache.SoftPFReq_misses::.cpu.data           10                       # number of SoftPFReq misses
system.cpu.dcache.SoftPFReq_misses::total           10                       # number of SoftPFReq misses
system.cpu.dcache.SoftPFReq_accesses::.cpu.data           29                       # number of SoftPFReq accesses(hits+misses)
system.cpu.dcache.SoftPFReq_accesses::total           29                       # number of SoftPFReq accesses(hits+misses)
system.cpu.dcache.SoftPFReq_miss_rate::.cpu.data     0.344828                       # miss rate for SoftPFReq accesses
system.cpu.dcache.SoftPFReq_miss_rate::total     0.344828                       # miss rate for SoftPFReq accesses
system.cpu.dcache.SoftPFReq_mshr_misses::.cpu.data            7                       # number of SoftPFReq MSHR misses
system.cpu.dcache.SoftPFReq_mshr_misses::total            7                       # number of SoftPFReq MSHR misses
system.cpu.dcache.SoftPFReq_mshr_miss_latency::.cpu.data       409500                       # number of SoftPFReq MSHR miss cycles
system.cpu.dcache.SoftPFReq_mshr_miss_latency::total       409500                       # number of SoftPFReq MSHR miss cycles
system.cpu.dcache.SoftPFReq_mshr_miss_rate::.cpu.data     0.241379                       # mshr miss rate for SoftPFReq accesses
system.cpu.dcache.SoftPFReq_mshr_miss_rate::total     0.241379                       # mshr miss rate for SoftPFReq accesses
system.cpu.dcache.SoftPFReq_avg_mshr_miss_latency::.cpu.data        58500                       # average SoftPFReq mshr miss latency
system.cpu.dcache.SoftPFReq_avg_mshr_miss_latency::total        58500                       # average SoftPFReq mshr miss latency
system.cpu.dcache.LoadLockedReq_hits::.cpu.data           18                       # number of LoadLockedReq hits
system.cpu.dcache.LoadLockedReq_hits::total           18                       # number of LoadLockedReq hits
system.cpu.dcache.LoadLockedReq_accesses::.cpu.data           18                       # number of LoadLockedReq accesses(hits+misses)
system.cpu.dcache.LoadLockedReq_accesses::total           18                       # number of LoadLockedReq accesses(hits+misses)
system.cpu.dcache.StoreCondReq_hits::.cpu.data           18                       # number of StoreCondReq hits
system.cpu.dcache.StoreCondReq_hits::total           18                       # number of StoreCondReq hits
system.cpu.dcache.StoreCondReq_accesses::.cpu.data           18                       # number of StoreCondReq accesses(hits+misses)
system.cpu.dcache.StoreCondReq_accesses::total           18                       # number of StoreCondReq accesses(hits+misses)
system.cpu.dcache.tags.pwrStateResidencyTicks::UNDEFINED     37556000                       # Cumulative time (in ticks) in various power states
system.cpu.dcache.tags.tagsinuse           107.631486                       # Cycle average of tags in use
system.cpu.dcache.tags.total_refs                3233                       # Total number of references to valid blocks.
system.cpu.dcache.tags.sampled_refs               189                       # Sample count of references to valid blocks.
system.cpu.dcache.tags.avg_refs             17.105820                       # Average number of references to valid blocks.
system.cpu.dcache.tags.warmup_cycle            145000                       # Cycle when the warmup percentage was hit.
system.cpu.dcache.tags.occ_blocks::.cpu.data   107.631486                       # Average occupied blocks per requestor
system.cpu.dcache.tags.occ_percent::.cpu.data     0.105109                       # Average percentage of cache occupancy
system.cpu.dcache.tags.occ_percent::total     0.105109                       # Average percentage of cache occupancy
system.cpu.dcache.tags.occ_task_id_blocks::1024          188                       # Occupied blocks per task id
system.cpu.dcache.tags.age_task_id_blocks_1024::0           29                       # Occupied blocks per task id
system.cpu.dcache.tags.age_task_id_blocks_1024::1          159                       # Occupied blocks per task id
system.cpu.dcache.tags.occ_task_id_percent::1024     0.183594                       # Percentage of cache occupancy per task id
system.cpu.dcache.tags.tag_accesses              6771                       # Number of tag accesses
system.cpu.dcache.tags.data_accesses             6771                       # Number of data accesses
system.cpu.itb.walker.pwrStateResidencyTicks::UNDEFINED     37556000                       # Cumulative time (in ticks) in various power states
system.cpu.itb.stage2_mmu.stage2_tlb.walker.pwrStateResidencyTicks::UNDEFINED     37556000                       # Cumulative time (in ticks) in various power states

---------- End Simulation Statistics   ----------
